
     RDKit          3D

 36 37  0  0  0  0  0  0  0  0999 V2000
    0.3921   -2.1611   -1.5019 C   0  0  0  0  0  0  0  0  0  0  0  0
    0.2248   -0.9015   -0.6705 C   0  0  0  0  0  0  0  0  0  0  0  0
    1.4346   -0.6437    0.0988 N   0  0  0  0  0  0  0  0  0  0  0  0
    2.6323   -0.1330   -0.4934 C   0  0  0  0  0  0  0  0  0  0  0  0
    2.6607    0.1561   -1.7203 O   0  0  0  0  0  0  0  0  0  0  0  0
    3.8314    0.0581    0.3298 C   0  0  0  0  0  0  0  0  0  0  0  0
    3.8013   -0.2446    1.5528 O   0  0  0  0  0  0  0  0  0  0  0  0
    5.0203    0.5936   -0.2690 N   0  0  0  0  0  0  0  0  0  0  0  0
    6.2950    0.8036    0.3622 C   0  0  0  0  0  0  0  0  0  0  0  0
    6.5027    0.4209    1.6968 C   0  0  0  0  0  0  0  0  0  0  0  0
    7.7373    0.6151    2.3144 C   0  0  0  0  0  0  0  0  0  0  0  0
    8.7851    1.1954    1.6041 C   0  0  0  0  0  0  0  0  0  0  0  0
    8.5967    1.5808    0.2769 C   0  0  0  0  0  0  0  0  0  0  0  0
    7.3591    1.3953   -0.3695 C   0  0  0  0  0  0  0  0  0  0  0  0
    7.1842    1.8295   -1.8226 C   0  0  0  0  0  0  0  0  0  0  0  0
    6.8161    0.6349   -2.6860 C   0  0  0  0  0  0  0  0  0  0  0  0
    6.0856    2.8737   -1.9276 C   0  0  0  0  0  0  0  0  0  0  0  0
    8.4490    2.4416   -2.4113 C   0  0  0  0  0  0  0  0  0  0  0  0
   -0.9434   -1.0485    0.2457 C   0  0  0  0  0  0  0  0  0  0  0  0
   -0.8903   -1.8455    1.2222 O   0  0  0  0  0  0  0  0  0  0  0  0
   -2.1294   -0.2947   -0.0110 N   0  0  0  0  0  0  0  0  0  0  0  0
   -3.3365   -0.4205    0.7988 C   0  0  0  0  0  0  0  0  0  0  0  0
   -4.0158   -1.7800    0.5915 C   0  0  0  0  0  0  0  0  0  0  0  0
   -4.4162   -2.0294   -0.8270 C   0  0  0  0  0  0  0  0  0  0  0  0
   -3.5787   -2.4843   -1.6489 O   0  0  0  0  0  0  0  0  0  0  0  0
   -5.7107   -1.7465   -1.2425 O   0  0  0  0  0  0  0  0  0  0  0  0
   -4.2726    0.7244    0.5396 C   0  0  0  0  0  0  0  0  0  0  0  0
   -4.5192    1.0803   -0.6025 O   0  0  0  0  0  0  0  0  0  0  0  0
   -4.9235    1.4281    1.6866 C   0  0  0  0  0  0  0  0  0  0  0  0
   -5.7483    0.5282    2.4219 O   0  0  0  0  0  0  0  0  0  0  0  0
   -6.9816    0.0568    1.9571 C   0  0  0  0  0  0  0  0  0  0  0  0
   -7.6768   -0.8863    2.7217 C   0  0  0  0  0  0  0  0  0  0  0  0
   -8.9091   -1.3811    2.2834 C   0  0  0  0  0  0  0  0  0  0  0  0
   -9.4537   -0.9327    1.0768 C   0  0  0  0  0  0  0  0  0  0  0  0
   -8.7670    0.0112    0.3083 C   0  0  0  0  0  0  0  0  0  0  0  0
   -7.5353    0.5056    0.7463 C   0  0  0  0  0  0  0  0  0  0  0  0
  1  2  1  0
  2  3  1  0
  3  4  1  0
  4  5  2  0
  4  6  1  0
  6  7  2  0
  6  8  1  0
  8  9  1  0
  9 10  2  0
 10 11  1  0
 11 12  2  0
 12 13  1  0
 13 14  2  0
 14 15  1  0
 15 16  1  0
 15 17  1  0
 15 18  1  0
  2 19  1  0
 19 20  2  0
 19 21  1  0
 21 22  1  0
 22 23  1  0
 23 24  1  0
 24 25  2  0
 24 26  1  0
 22 27  1  0
 27 28  2  0
 27 29  1  0
 29 30  1  0
 30 31  1  0
 31 32  2  0
 32 33  1  0
 33 34  2  0
 34 35  1  0
 35 36  2  0
 14  9  1  0
 36 31  1  0
M  END
