
     RDKit          3D

 27 27  0  0  0  0  0  0  0  0999 V2000
   28.4773   29.1564   34.2565 N   0  0  0  0  0  0  0  0  0  0  0  0
   32.1689   28.4038   35.6967 C   0  0  0  0  0  0  0  0  0  0  0  0
   26.5838   27.6614   35.1300 C   0  0  0  0  0  0  0  0  0  0  0  0
   33.3005   27.7266   38.1728 C   0  0  0  0  0  0  0  0  0  0  0  0
   28.0143   25.4809   31.6018 N   0  0  0  0  0  0  0  0  0  0  0  0
   36.0927   26.9092   43.0089 O   0  0  0  0  0  0  0  0  0  0  0  0
   33.1418   28.3212   37.1862 C   0  0  0  0  0  0  0  0  0  0  0  0
   28.1334   27.5656   30.5375 C   0  0  0  0  0  0  0  0  0  0  0  0
   27.5086   26.1240   32.6502 C   0  0  0  0  0  0  0  0  0  0  0  0
   35.7823   28.3179   43.0623 C   0  0  0  0  0  0  0  0  0  0  0  0
   32.4308   27.3562   34.7130 O   0  0  0  0  0  0  0  0  0  0  0  0
   31.4855   29.6910   35.0372 C   0  0  0  0  0  0  0  0  0  0  0  0
   28.7511   29.6076   35.4065 C   0  0  0  0  0  0  0  0  0  0  0  0
   28.4946   26.2443   30.5994 C   0  0  0  0  0  0  0  0  0  0  0  0
   27.6167   28.2339   31.6198 N   0  0  0  0  0  0  0  0  0  0  0  0
   29.4961   28.8499   36.3451 C   0  0  0  0  0  0  0  0  0  0  0  0
   27.5853   28.1773   34.0494 C   0  0  0  0  0  0  0  0  0  0  0  0
   33.6264   28.8530   37.5012 C   0  0  0  0  0  0  0  0  0  0  0  0
   27.5055   27.5242   32.7556 C   0  0  0  0  0  0  0  0  0  0  0  0
   34.0335   26.8760   40.7296 C   0  0  0  0  0  0  0  0  0  0  0  0
   34.1529   25.8053   43.9118 O   0  0  0  0  0  0  0  0  0  0  0  0
   35.5187   29.2085   41.6990 C   0  0  0  0  0  0  0  0  0  0  0  0
   33.6218   27.6794   39.4856 C   0  0  0  0  0  0  0  0  0  0  0  0
   30.7342   28.6654   35.9017 C   0  0  0  0  0  0  0  0  0  0  0  0
   34.0099   29.2931   41.1725 C   0  0  0  0  0  0  0  0  0  0  0  0
   34.6697   27.0693   43.3614 C   0  0  0  0  0  0  0  0  0  0  0  0
   33.7233   28.4271   39.9397 C   0  0  0  0  0  0  0  0  0  0  0  0
  1 13  1  0
  1 17  2  3
  2  7  1  0
  2 11  1  0
  2 24  1  0
  3 17  1  0
  4  7  1  0
  4 23  2  3
  5  9  2  0
  5 14  1  0
  6 10  1  0
  6 26  1  0
  7 18  2  0
  8 14  1  0
  8 15  2  0
  9 19  1  0
 10 22  1  0
 12 24  1  0
 13 16  1  0
 15 19  1  0
 16 24  1  0
 17 19  1  0
 20 23  1  0
 21 26  1  0
 22 25  1  0
 23 27  1  0
 25 27  1  0
M  END
