
     RDKit          3D

 27 29  0  0  0  0  0  0  0  0999 V2000
   35.9654   28.2996   39.1819 C   0  0  0  0  0  0  0  0  0  0  0  0
   29.1959   28.3047   36.7672 N   0  0  0  0  0  0  0  0  0  0  0  0
   32.3660   29.0387   36.8711 C   0  0  0  0  0  0  0  0  0  0  0  0
   33.3508   27.3932   39.3600 C   0  0  0  0  0  0  0  0  0  0  0  0
   31.9654   27.2322   32.8436 C   0  0  0  0  0  0  0  0  0  0  0  0
   32.6360   29.1286   37.7031 C   0  0  0  0  0  0  0  0  0  0  0  0
   30.7838   27.4850   32.3090 C   0  0  0  0  0  0  0  0  0  0  0  0
   30.3867   29.2189   38.2380 C   0  0  0  0  0  0  0  0  0  0  0  0
   34.3232   26.7006   39.9534 C   0  0  0  0  0  0  0  0  0  0  0  0
   30.4852   28.2732   36.3014 C   0  0  0  0  0  0  0  0  0  0  0  0
   28.0485   26.5500   32.6525 C   0  0  0  0  0  0  0  0  0  0  0  0
   27.6727   27.8686   32.4877 C   0  0  0  0  0  0  0  0  0  0  0  0
   28.9031   27.3402   31.7541 C   0  0  0  0  0  0  0  0  0  0  0  0
   30.6965   27.8158   35.0517 C   0  0  0  0  0  0  0  0  0  0  0  0
   34.9327   28.9992   38.5488 C   0  0  0  0  0  0  0  0  0  0  0  0
   32.0056   27.2418   34.2303 C   0  0  0  0  0  0  0  0  0  0  0  0
   31.3486   28.8530   37.3234 C   0  0  0  0  0  0  0  0  0  0  0  0
   29.2157   28.9271   37.9985 C   0  0  0  0  0  0  0  0  0  0  0  0
   29.8880   27.8761   33.0324 C   0  0  0  0  0  0  0  0  0  0  0  0
   29.6771   27.9066   34.3130 C   0  0  0  0  0  0  0  0  0  0  0  0
   32.8031   30.3067   38.2141 O   0  0  0  0  0  0  0  0  0  0  0  0
   33.6763   28.5197   38.5502 C   0  0  0  0  0  0  0  0  0  0  0  0
   35.6081   27.1714   39.8687 C   0  0  0  0  0  0  0  0  0  0  0  0
   27.1034   29.1765   39.0072 C   0  0  0  0  0  0  0  0  0  0  0  0
   32.9484   27.1256   31.8837 F   0  0  0  0  0  0  0  0  0  0  0  0
   28.5350   28.2156   34.8511 O   0  0  0  0  0  0  0  0  0  0  0  0
   28.3272   29.3140   38.7607 O   0  0  0  0  0  0  0  0  0  0  0  0
  1 15  2  0
  1 23  1  0
  2 10  1  0
  2 18  1  0
  3  6  1  0
  3 17  1  0
  4  9  1  0
  4 22  2  0
  5  7  2  0
  5 16  1  0
  5 25  1  0
  6 21  1  0
  6 22  1  0
  7 19  1  0
  8 17  1  0
  8 18  2  0
  9 23  2  0
 10 14  1  0
 10 17  2  0
 11 12  1  0
 11 13  1  0
 13 19  1  0
 14 16  1  0
 14 20  1  0
 15 22  1  0
 18 27  1  0
 19 20  1  0
 20 26  1  0
 24 27  1  0
M  END
