
     RDKit          3D

 27 28  0  0  0  0  0  0  0  0999 V2000
   29.4509   27.0534   33.4953 C   0  0  0  0  0  0  0  0  0  0  0  0
   27.4653   27.5580   37.9922 C   0  0  0  0  0  0  0  0  0  0  0  0
   32.8630   28.4756   37.5922 C   0  0  0  0  0  0  0  0  0  0  0  0
   27.3375   26.4502   31.4684 C   0  0  0  0  0  0  0  0  0  0  0  0
   34.9400   27.4741   38.2989 C   0  0  0  0  0  0  0  0  0  0  0  0
   30.9718   30.4447   37.4524 O   0  0  0  0  0  0  0  0  0  0  0  0
   28.5508   27.4180   31.2170 C   0  0  0  0  0  0  0  0  0  0  0  0
   33.8033   28.2319   38.6083 C   0  0  0  0  0  0  0  0  0  0  0  0
   33.0706   27.9182   36.3005 C   0  0  0  0  0  0  0  0  0  0  0  0
   29.8115   29.6741   37.7649 C   0  0  0  0  0  0  0  0  0  0  0  0
   29.3699   28.5879   36.8635 C   0  0  0  0  0  0  0  0  0  0  0  0
   34.9776   26.6148   37.1334 C   0  0  0  0  0  0  0  0  0  0  0  0
   36.1948   31.1538   37.8727 C   0  0  0  0  0  0  0  0  0  0  0  0
   27.1955   28.4274   39.0411 C   0  0  0  0  0  0  0  0  0  0  0  0
   28.8056   28.1085   32.6067 C   0  0  0  0  0  0  0  0  0  0  0  0
   29.0948   30.0634   38.9625 C   0  0  0  0  0  0  0  0  0  0  0  0
   36.0248   28.0619   38.9476 N   0  0  0  0  0  0  0  0  0  0  0  0
   26.3484   27.2410   32.3986 C   0  0  0  0  0  0  0  0  0  0  0  0
   27.9117   29.5289   39.4968 C   0  0  0  0  0  0  0  0  0  0  0  0
   30.9511   27.3957   33.6624 C   0  0  0  0  0  0  0  0  0  0  0  0
   29.7266   28.5027   35.4115 C   0  0  0  0  0  0  0  0  0  0  0  0
   28.4330   27.6196   37.0633 C   0  0  0  0  0  0  0  0  0  0  0  0
   37.3541   30.1657   37.8567 C   0  0  0  0  0  0  0  0  0  0  0  0
   31.0297   28.2858   34.8909 N   0  0  0  0  0  0  0  0  0  0  0  0
   32.4472   28.7258   35.1296 C   0  0  0  0  0  0  0  0  0  0  0  0
   34.0372   26.8497   36.1067 C   0  0  0  0  0  0  0  0  0  0  0  0
   36.2417   29.7502   38.8848 C   0  0  0  0  0  0  0  0  0  0  0  0
  1 15  1  0
  1 20  1  0
  2 14  1  0
  2 22  2  0
  3  8  2  0
  3  9  1  0
  4  7  1  0
  4 18  1  0
  5  8  1  0
  5 12  1  0
  5 17  1  0
  6 10  1  0
  7 15  1  0
  9 25  1  0
  9 26  1  0
 10 11  1  0
 10 16  2  0
 11 21  1  0
 11 22  1  0
 12 26  2  0
 13 23  1  0
 14 19  2  0
 16 19  1  0
 17 27  1  0
 20 24  1  0
 21 24  1  0
 23 27  1  0
 24 25  1  0
M  END
