
     RDKit          3D

 27 28  0  0  0  0  0  0  0  0999 V2000
   33.5306   27.2164   38.1483 C   0  0  0  0  0  0  0  0  0  0  0  0
   35.5539   27.0080   40.5517 C   0  0  0  0  0  0  0  0  0  0  0  0
   31.2023   30.0570   36.4382 C   0  0  0  0  0  0  0  0  0  0  0  0
   30.1557   28.1337   33.3860 C   0  0  0  0  0  0  0  0  0  0  0  0
   33.3770   26.9436   41.8214 C   0  0  0  0  0  0  0  0  0  0  0  0
   30.8743   30.9110   37.6323 C   0  0  0  0  0  0  0  0  0  0  0  0
   30.9565   27.9375   32.2627 C   0  0  0  0  0  0  0  0  0  0  0  0
   31.5292   28.0116   38.2754 C   0  0  0  0  0  0  0  0  0  0  0  0
   28.7549   27.8158   33.3631 C   0  0  0  0  0  0  0  0  0  0  0  0
   30.1499   28.3999   37.8216 C   0  0  0  0  0  0  0  0  0  0  0  0
   27.9882   28.0601   34.6487 C   0  0  0  0  0  0  0  0  0  0  0  0
   34.1391   27.0836   40.4875 C   0  0  0  0  0  0  0  0  0  0  0  0
   30.3642   28.8118   36.3689 N   0  0  0  0  0  0  0  0  0  0  0  0
   28.7121   29.9592   35.4969 O   0  0  0  0  0  0  0  0  0  0  0  0
   32.4424   27.7099   37.4151 C   0  0  0  0  0  0  0  0  0  0  0  0
   33.2649   27.3450   39.4667 C   0  0  0  0  0  0  0  0  0  0  0  0
   34.8033   28.6172   41.9448 C   0  0  0  0  0  0  0  0  0  0  0  0
   30.3891   27.4220   31.0959 C   0  0  0  0  0  0  0  0  0  0  0  0
   29.0283   27.1088   31.0544 C   0  0  0  0  0  0  0  0  0  0  0  0
   32.4587   27.8151   36.0698 C   0  0  0  0  0  0  0  0  0  0  0  0
   27.7188   26.8341   35.5226 C   0  0  0  0  0  0  0  0  0  0  0  0
   33.2770   27.6238   35.3097 O   0  0  0  0  0  0  0  0  0  0  0  0
   28.2074   27.3105   32.1744 C   0  0  0  0  0  0  0  0  0  0  0  0
   32.0289   27.8223   39.5724 C   0  0  0  0  0  0  0  0  0  0  0  0
   31.7043   30.7008   35.2816 C   0  0  0  0  0  0  0  0  0  0  0  0
   29.0989   28.9426   35.5303 C   0  0  0  0  0  0  0  0  0  0  0  0
   33.4521   28.4084   42.0726 C   0  0  0  0  0  0  0  0  0  0  0  0
  1 15  1  0
  1 16  1  0
  2 12  1  0
  3  6  1  0
  3 13  1  0
  3 25  1  0
  4  7  2  0
  4  9  1  0
  5 12  1  0
  5 27  1  0
  7 18  1  0
  8 10  1  0
  8 15  2  0
  8 24  1  0
  9 11  1  0
  9 23  2  0
 10 13  1  0
 11 21  1  0
 11 26  1  0
 12 16  1  0
 13 26  1  0
 14 26  2  0
 15 20  1  0
 16 24  1  0
 17 27  1  0
 18 19  2  0
 19 23  1  0
 20 22  2  0
M  END
