
     RDKit          3D

 19 19  0  0  0  0  0  0  0  0999 V2000
   25.4077   56.5929   88.0309 C   0  0  0  0  0  0  0  0  0  0  0  0
   28.8975   55.5250   90.5762 O   0  0  0  0  0  0  0  0  0  0  0  0
   22.9681   55.8458   88.2668 C   0  0  0  0  0  0  0  0  0  0  0  0
   27.4612   56.7009   91.9474 O   0  0  0  0  0  0  0  0  0  0  0  0
   24.1087   56.3766   86.1779 C   0  0  0  0  0  0  0  0  0  0  0  0
   26.1427   56.8365   89.1736 C   0  0  0  0  0  0  0  0  0  0  0  0
   21.6198   56.0415   86.3954 C   0  0  0  0  0  0  0  0  0  0  0  0
   27.9225   56.3201   90.7554 C   0  0  0  0  0  0  0  0  0  0  0  0
   27.3377   56.9739   89.5652 C   0  0  0  0  0  0  0  0  0  0  0  0
   25.3225   56.5883   86.7534 C   0  0  0  0  0  0  0  0  0  0  0  0
   24.2265   55.8649   88.8215 C   0  0  0  0  0  0  0  0  0  0  0  0
   28.6836   57.4500   87.4142 N   0  0  0  0  0  0  0  0  0  0  0  0
   22.8903   56.0993   86.9246 C   0  0  0  0  0  0  0  0  0  0  0  0
   24.8339   55.2537   90.3505 S   0  0  0  0  0  0  0  0  0  0  0  0
   28.2161   57.7971   88.6940 C   0  0  0  0  0  0  0  0  0  0  0  0
   29.0880   59.9194   87.1492 C   0  0  0  0  0  0  0  0  0  0  0  0
   28.5652   61.2758   87.0682 O   0  0  0  0  0  0  0  0  0  0  0  0
   29.0659   58.7599   89.5286 N   0  0  0  0  0  0  0  0  0  0  0  0
   29.5304   59.8595   88.6548 C   0  0  0  0  0  0  0  0  0  0  0  0
  1  6  1  0
  1 10  1  0
  1 11  1  0
  2  8  2  0
  3 11  1  0
  3 13  2  0
  4  8  1  0
  5 10  2  0
  5 13  1  0
  6  9  1  0
  7 13  1  0
  8  9  1  0
  9 15  1  0
 11 14  1  0
 12 15  2  0
 15 18  1  0
 16 17  1  0
 16 19  1  0
 18 19  1  0
M  END
