
     RDKit          3D

 19 20  0  0  0  0  0  0  0  0999 V2000
   28.0142   58.3163   86.5173 C   0  0  0  0  0  0  0  0  0  0  0  0
   29.6795   60.7798   88.1422 N   0  0  0  0  0  0  0  0  0  0  0  0
   26.4731   57.0258   88.9643 C   0  0  0  0  0  0  0  0  0  0  0  0
   24.5225   55.9259   87.9089 C   0  0  0  0  0  0  0  0  0  0  0  0
   24.7779   55.6347   90.3521 C   0  0  0  0  0  0  0  0  0  0  0  0
   29.1785   59.5455   88.2860 C   0  0  0  0  0  0  0  0  0  0  0  0
   29.2990   58.7754   86.9387 C   0  0  0  0  0  0  0  0  0  0  0  0
   28.7120   59.0277   89.4540 N   0  0  0  0  0  0  0  0  0  0  0  0
   24.2948   54.2464   92.8108 C   0  0  0  0  0  0  0  0  0  0  0  0
   23.3321   54.1051   91.7549 C   0  0  0  0  0  0  0  0  0  0  0  0
   26.9900   57.3558   87.4073 C   0  0  0  0  0  0  0  0  0  0  0  0
   25.0129   56.1167   86.6143 C   0  0  0  0  0  0  0  0  0  0  0  0
   23.5918   54.7928   90.5070 C   0  0  0  0  0  0  0  0  0  0  0  0
   22.1033   53.3495   91.9948 O   0  0  0  0  0  0  0  0  0  0  0  0
   25.6287   55.8599   91.4378 C   0  0  0  0  0  0  0  0  0  0  0  0
   28.7431   59.6842   85.8427 C   0  0  0  0  0  0  0  0  0  0  0  0
   25.2654   56.2586   89.0754 C   0  0  0  0  0  0  0  0  0  0  0  0
   26.2301   56.7557   86.3988 C   0  0  0  0  0  0  0  0  0  0  0  0
   25.4099   55.1313   92.6424 C   0  0  0  0  0  0  0  0  0  0  0  0
  1  7  1  0
  1 11  1  0
  2  6  2  0
  3 11  2  0
  3 17  1  0
  4 12  1  0
  4 17  2  0
  5 13  2  0
  5 15  1  0
  5 17  1  0
  6  7  1  0
  6  8  1  0
  7 16  1  0
  9 10  2  0
  9 19  1  0
 10 13  1  0
 10 14  1  0
 11 18  1  0
 12 18  2  0
 15 19  2  0
M  END
