
     RDKit          3D

 19 20  0  0  0  0  0  0  0  0999 V2000
   26.6905   57.0739   90.2107 C   0  0  0  0  0  0  0  0  0  0  0  0
   27.3988   59.8027   85.7218 C   0  0  0  0  0  0  0  0  0  0  0  0
   29.1190   61.6414   86.4639 C   0  0  0  0  0  0  0  0  0  0  0  0
   28.9625   57.9583   90.4843 O   0  0  0  0  0  0  0  0  0  0  0  0
   28.4831   57.8692   89.1302 C   0  0  0  0  0  0  0  0  0  0  0  0
   23.1491   53.8785   91.0922 C   0  0  0  0  0  0  0  0  0  0  0  0
   26.0849   55.9074   90.8441 C   0  0  0  0  0  0  0  0  0  0  0  0
   29.4440   60.2250   87.2374 C   0  0  0  0  0  0  0  0  0  0  0  0
   26.8032   55.4205   92.0224 O   0  0  0  0  0  0  0  0  0  0  0  0
   24.3665   55.4914   88.9530 C   0  0  0  0  0  0  0  0  0  0  0  0
   24.9099   55.3557   90.2621 C   0  0  0  0  0  0  0  0  0  0  0  0
   28.4977   59.0746   86.6364 C   0  0  0  0  0  0  0  0  0  0  0  0
   22.5965   53.9439   89.8061 C   0  0  0  0  0  0  0  0  0  0  0  0
   27.7901   58.2300   87.7542 C   0  0  0  0  0  0  0  0  0  0  0  0
   27.9674   61.3647   85.3997 C   0  0  0  0  0  0  0  0  0  0  0  0
   22.5776   54.4352   87.5690 O   0  0  0  0  0  0  0  0  0  0  0  0
   24.3147   54.5270   91.3742 C   0  0  0  0  0  0  0  0  0  0  0  0
   23.2102   54.6737   88.7605 C   0  0  0  0  0  0  0  0  0  0  0  0
   27.8242   56.4828   89.4020 N   0  0  0  0  0  0  0  0  0  0  0  0
  1  7  1  0
  1 19  1  0
  2 12  1  0
  2 15  1  0
  3  8  1  0
  3 15  1  0
  4  5  2  0
  5 14  1  0
  5 19  1  0
  6 13  1  0
  6 17  2  0
  7  9  1  0
  7 11  1  0
  8 12  1  0
 10 11  1  0
 10 18  1  0
 11 17  1  0
 12 14  1  0
 13 18  2  0
 16 18  1  0
M  END
