
     RDKit          3D

 19 20  0  0  0  0  0  0  0  0999 V2000
   27.6945   60.5239   85.4769 C   0  0  0  0  0  0  0  0  0  0  0  0
   25.3698   54.9401   91.1756 C   0  0  0  0  0  0  0  0  0  0  0  0
   24.3739   55.2797   88.9957 C   0  0  0  0  0  0  0  0  0  0  0  0
   26.6773   56.4763   90.2650 C   0  0  0  0  0  0  0  0  0  0  0  0
   26.4699   54.8205   91.8278 C   0  0  0  0  0  0  0  0  0  0  0  0
   25.4229   55.7290   89.9599 C   0  0  0  0  0  0  0  0  0  0  0  0
   28.9276   58.5208   89.1279 O   0  0  0  0  0  0  0  0  0  0  0  0
   25.5931   57.4011   88.1817 C   0  0  0  0  0  0  0  0  0  0  0  0
   23.0356   54.3158   90.7012 C   0  0  0  0  0  0  0  0  0  0  0  0
   27.4014   58.7134   87.1989 C   0  0  0  0  0  0  0  0  0  0  0  0
   26.1903   57.8073   86.9673 C   0  0  0  0  0  0  0  0  0  0  0  0
   26.2313   58.7225   84.7156 C   0  0  0  0  0  0  0  0  0  0  0  0
   27.7147   58.1550   88.6837 N   0  0  0  0  0  0  0  0  0  0  0  0
   27.7092   54.7043   91.7349 O   0  0  0  0  0  0  0  0  0  0  0  0
   24.1149   54.3709   91.6360 C   0  0  0  0  0  0  0  0  0  0  0  0
   26.7352   57.6348   89.3296 C   0  0  0  0  0  0  0  0  0  0  0  0
   27.3513   59.1019   85.6570 C   0  0  0  0  0  0  0  0  0  0  0  0
   28.6359   58.5356   85.0498 C   0  0  0  0  0  0  0  0  0  0  0  0
   23.2807   54.6071   89.4138 C   0  0  0  0  0  0  0  0  0  0  0  0
  1 17  1  0
  2  5  1  0
  2  6  1  0
  2 15  1  0
  3  6  1  0
  3 19  2  0
  4  6  1  0
  4 16  1  0
  5 14  2  0
  7 13  1  0
  8 11  1  0
  8 16  1  0
  9 15  2  0
  9 19  1  0
 10 11  1  0
 10 13  1  0
 10 17  1  0
 12 17  1  0
 13 16  1  0
 17 18  1  0
M  END
