
     RDKit          3D

 21 21  0  0  0  0  0  0  0  0999 V2000
    2.3281    2.4649   -0.4772 C   0  0  0  0  0  0  0  0  0  0  0  0
    1.5478    1.2196   -0.8517 C   0  0  0  0  0  0  0  0  0  0  0  0
    0.2864    1.2146   -0.1262 N   0  0  0  0  0  0  0  0  0  0  0  0
   -0.8012    0.3522   -0.4730 C   0  0  0  0  0  0  0  0  0  0  0  0
   -0.7034   -0.4287   -1.4581 O   0  0  0  0  0  0  0  0  0  0  0  0
   -2.0366    0.3793    0.3180 C   0  0  0  0  0  0  0  0  0  0  0  0
   -2.1286    1.1635    1.3003 O   0  0  0  0  0  0  0  0  0  0  0  0
   -3.1234   -0.4877   -0.0373 N   0  0  0  0  0  0  0  0  0  0  0  0
   -4.3925   -0.5902    0.6228 C   0  0  0  0  0  0  0  0  0  0  0  0
   -5.3360   -1.4987    0.1300 C   0  0  0  0  0  0  0  0  0  0  0  0
   -6.5844   -1.6273    0.7465 C   0  0  0  0  0  0  0  0  0  0  0  0
   -6.8967   -0.8459    1.8622 C   0  0  0  0  0  0  0  0  0  0  0  0
   -5.9607    0.0639    2.3612 C   0  0  0  0  0  0  0  0  0  0  0  0
   -4.7130    0.1914    1.7438 C   0  0  0  0  0  0  0  0  0  0  0  0
    2.3515   -0.0243   -0.4964 C   0  0  0  0  0  0  0  0  0  0  0  0
    3.3157   -0.3960   -1.6156 C   0  0  0  0  0  0  0  0  0  0  0  0
    4.4634    0.4973   -1.6231 N   0  0  0  0  0  0  0  0  0  0  0  0
    5.5045   -0.1341   -0.8311 C   0  0  0  0  0  0  0  0  0  0  0  0
    6.7159    0.7758   -0.7719 C   0  0  0  0  0  0  0  0  0  0  0  0
    7.7957    0.1430    0.0403 C   0  0  0  0  0  0  0  0  0  0  0  0
    8.3675   -0.8567   -0.3634 O   0  0  0  0  0  0  0  0  0  0  0  0
  1  2  1  0
  2  3  1  0
  3  4  1  0
  4  5  2  0
  4  6  1  0
  6  7  2  0
  6  8  1  0
  8  9  1  0
  9 10  2  0
 10 11  1  0
 11 12  2  0
 12 13  1  0
 13 14  2  0
  2 15  1  0
 15 16  1  0
 16 17  1  0
 17 18  1  0
 18 19  1  0
 19 20  1  0
 20 21  2  0
 14  9  1  0
M  END
