
     RDKit          3D

 22 22  0  0  0  0  0  0  0  0999 V2000
   22.9440   10.5659   24.3744 C   0  0  0  0  0  0  0  0  0  0  0  0
   25.1279    7.7719   31.2828 C   0  0  0  0  0  0  0  0  0  0  0  0
   22.0530    7.7583   26.2879 C   0  0  0  0  0  0  0  0  0  0  0  0
   24.4357    5.5507   28.5840 C   0  0  0  0  0  0  0  0  0  0  0  0
   25.5870    4.5268   27.7052 C   0  0  0  0  0  0  0  0  0  0  0  0
   24.1004    8.3170   32.3761 C   0  0  0  0  0  0  0  0  0  0  0  0
   24.4870    8.1742   29.7213 C   0  0  0  0  0  0  0  0  0  0  0  0
   22.5052    8.9641   26.3103 C   0  0  0  0  0  0  0  0  0  0  0  0
   27.0725    5.1810   27.6656 C   0  0  0  0  0  0  0  0  0  0  0  0
   22.6994    9.1270   24.9927 C   0  0  0  0  0  0  0  0  0  0  0  0
   24.1284    9.7191   30.0797 O   0  0  0  0  0  0  0  0  0  0  0  0
   22.6804   10.1029   27.3607 N   0  0  0  0  0  0  0  0  0  0  0  0
   24.9605    6.6209   29.2572 N   0  0  0  0  0  0  0  0  0  0  0  0
   22.8718   11.4523   26.8747 C   0  0  0  0  0  0  0  0  0  0  0  0
   25.3936    3.0528   27.6006 O   0  0  0  0  0  0  0  0  0  0  0  0
   20.2206    4.4764   28.4006 C   0  0  0  0  0  0  0  0  0  0  0  0
   23.0020   11.7135   25.3702 C   0  0  0  0  0  0  0  0  0  0  0  0
   21.2893    6.7380   26.7513 C   0  0  0  0  0  0  0  0  0  0  0  0
   19.4242    5.0762   27.4890 C   0  0  0  0  0  0  0  0  0  0  0  0
   21.7226    4.8838   28.6344 C   0  0  0  0  0  0  0  0  0  0  0  0
   22.7402    5.7375   28.2427 C   0  0  0  0  0  0  0  0  0  0  0  0
   19.9937    6.1531   26.7304 C   0  0  0  0  0  0  0  0  0  0  0  0
  1 10  2  0
  1 17  1  0
  2  6  1  0
  2  7  1  0
  3  8  1  0
  3 18  1  0
  4  5  1  0
  4 13  1  0
  4 21  1  0
  5  9  1  0
  5 15  1  0
  7 11  2  0
  7 13  1  0
  8 10  1  0
  8 12  2  0
 12 14  1  0
 14 17  2  0
 16 19  2  3
 16 20  1  0
 18 22  2  3
 19 22  1  0
 20 21  2  3
M  END
