
     RDKit          3D

 22 22  0  0  0  0  0  0  0  0999 V2000
   24.8318    1.7229   26.3543 N   0  0  0  0  0  0  0  0  0  0  0  0
   21.7114    8.0026   30.4830 C   0  0  0  0  0  0  0  0  0  0  0  0
   22.2834    9.3765   24.1891 O   0  0  0  0  0  0  0  0  0  0  0  0
   21.5471    2.4711   26.8702 C   0  0  0  0  0  0  0  0  0  0  0  0
   23.2489   11.6256   25.0949 O   0  0  0  0  0  0  0  0  0  0  0  0
   22.5502    9.7593   26.7819 C   0  0  0  0  0  0  0  0  0  0  0  0
   19.9217    4.5576   27.5232 C   0  0  0  0  0  0  0  0  0  0  0  0
   22.7629    3.4397   26.4618 C   0  0  0  0  0  0  0  0  0  0  0  0
   22.5595    5.0035   26.6679 C   0  0  0  0  0  0  0  0  0  0  0  0
   23.9253    7.5041   27.3064 N   0  0  0  0  0  0  0  0  0  0  0  0
   22.5166    8.2113   27.1657 C   0  0  0  0  0  0  0  0  0  0  0  0
   24.3684   10.8888   28.3427 O   0  0  0  0  0  0  0  0  0  0  0  0
   24.2853    3.0661   25.8486 C   0  0  0  0  0  0  0  0  0  0  0  0
   24.4432    8.1110   28.6667 C   0  0  0  0  0  0  0  0  0  0  0  0
   22.9801    9.1416   30.4447 C   0  0  0  0  0  0  0  0  0  0  0  0
   24.0272    8.7165   31.5906 C   0  0  0  0  0  0  0  0  0  0  0  0
   22.6747   10.2925   25.2775 C   0  0  0  0  0  0  0  0  0  0  0  0
   25.3013    4.2639   26.3827 C   0  0  0  0  0  0  0  0  0  0  0  0
   21.2951    7.2200   27.6470 C   0  0  0  0  0  0  0  0  0  0  0  0
   21.2785    5.6485   27.2583 C   0  0  0  0  0  0  0  0  0  0  0  0
   23.9222    9.6118   29.1463 C   0  0  0  0  0  0  0  0  0  0  0  0
   20.1827    3.0571   27.3640 C   0  0  0  0  0  0  0  0  0  0  0  0
  1 13  1  0
  2 15  1  0
  3 17  2  0
  4  8  2  0
  4 22  1  0
  5 17  1  0
  6 11  1  0
  6 17  1  0
  7 20  1  0
  7 22  2  0
  8  9  1  0
  8 13  1  0
  9 20  2  0
 10 11  1  0
 10 14  1  0
 11 19  1  0
 12 21  1  0
 13 18  1  0
 14 21  1  0
 15 16  1  0
 15 21  1  0
 19 20  1  0
M  END
