
     RDKit          3D

 22 23  0  0  0  0  0  0  0  0999 V2000
   26.1064    4.8255   29.3214 C   0  0  0  0  0  0  0  0  0  0  0  0
   24.3794    6.7275   28.8634 C   0  0  0  0  0  0  0  0  0  0  0  0
   22.8594   10.1824   28.8430 C   0  0  0  0  0  0  0  0  0  0  0  0
   22.8710    9.2588   25.0658 C   0  0  0  0  0  0  0  0  0  0  0  0
   21.9974    7.3514   28.9176 C   0  0  0  0  0  0  0  0  0  0  0  0
   25.8962    5.9665   27.0452 C   0  0  0  0  0  0  0  0  0  0  0  0
   21.4646    5.9599   28.2994 C   0  0  0  0  0  0  0  0  0  0  0  0
   22.0681    4.9433   27.4277 C   0  0  0  0  0  0  0  0  0  0  0  0
   20.0782    6.2104   30.0741 N   0  0  0  0  0  0  0  0  0  0  0  0
   23.2680    7.5874   29.2949 C   0  0  0  0  0  0  0  0  0  0  0  0
   26.5049    4.9644   27.9262 C   0  0  0  0  0  0  0  0  0  0  0  0
   23.2712   11.0795   27.7508 C   0  0  0  0  0  0  0  0  0  0  0  0
   24.8615    6.8530   27.5034 C   0  0  0  0  0  0  0  0  0  0  0  0
   19.9267    3.5166   27.2078 C   0  0  0  0  0  0  0  0  0  0  0  0
   21.3352    3.7151   26.9077 C   0  0  0  0  0  0  0  0  0  0  0  0
   22.3909    8.5812   26.2074 C   0  0  0  0  0  0  0  0  0  0  0  0
   23.4318   10.4591   24.9702 N   0  0  0  0  0  0  0  0  0  0  0  0
   23.6080   11.2951   26.1823 C   0  0  0  0  0  0  0  0  0  0  0  0
   20.1051    5.5758   28.7303 C   0  0  0  0  0  0  0  0  0  0  0  0
   22.7477    8.7394   29.3187 C   0  0  0  0  0  0  0  0  0  0  0  0
   25.0496    5.7710   29.7943 C   0  0  0  0  0  0  0  0  0  0  0  0
   19.2891    4.4575   28.0420 C   0  0  0  0  0  0  0  0  0  0  0  0
  1 11  2  0
  1 21  1  0
  2 10  1  0
  2 13  1  0
  2 21  2  0
  3 12  1  0
  3 20  1  0
  4 16  1  0
  4 17  2  3
  5  7  1  0
  5 10  1  0
  6 11  1  0
  6 13  2  0
  7  8  1  0
  7 19  1  0
  8 15  2  0
  9 19  1  0
 10 20  1  0
 12 18  2  3
 14 15  1  0
 14 22  2  0
 17 18  1  0
 19 22  1  0
M  END
