
     RDKit          3D

 22 24  0  0  0  0  0  0  0  0999 V2000
   24.1610    8.4400   30.9455 C   0  0  0  0  0  0  0  0  0  0  0  0
   23.5369    3.3623   24.5075 C   0  0  0  0  0  0  0  0  0  0  0  0
   23.5464    6.7559   28.8070 N   0  0  0  0  0  0  0  0  0  0  0  0
   24.2359    9.4897   31.8289 C   0  0  0  0  0  0  0  0  0  0  0  0
   24.0087    3.6943   27.1317 C   0  0  0  0  0  0  0  0  0  0  0  0
   23.5618    5.8953   27.3892 C   0  0  0  0  0  0  0  0  0  0  0  0
   23.6161    7.0171   27.6415 N   0  0  0  0  0  0  0  0  0  0  0  0
   22.2102    9.4818   29.8823 C   0  0  0  0  0  0  0  0  0  0  0  0
   22.9572    9.1834   26.8244 C   0  0  0  0  0  0  0  0  0  0  0  0
   23.7167    4.7597   26.4670 C   0  0  0  0  0  0  0  0  0  0  0  0
   23.9542    2.5005   26.5467 C   0  0  0  0  0  0  0  0  0  0  0  0
   22.7026    8.3706   24.4603 C   0  0  0  0  0  0  0  0  0  0  0  0
   23.4643   10.4605   31.5091 C   0  0  0  0  0  0  0  0  0  0  0  0
   23.0853    7.9231   26.6821 C   0  0  0  0  0  0  0  0  0  0  0  0
   23.0142   10.0646   25.7568 N   0  0  0  0  0  0  0  0  0  0  0  0
   23.7768    2.2771   25.2499 C   0  0  0  0  0  0  0  0  0  0  0  0
   22.7924    7.4530   25.4555 C   0  0  0  0  0  0  0  0  0  0  0  0
   22.9768    9.5581   24.6050 C   0  0  0  0  0  0  0  0  0  0  0  0
   23.3822    4.5540   25.1118 C   0  0  0  0  0  0  0  0  0  0  0  0
   22.8553    8.3006   30.3135 C   0  0  0  0  0  0  0  0  0  0  0  0
   22.5955    7.2064   29.6295 C   0  0  0  0  0  0  0  0  0  0  0  0
   22.5986   10.4227   30.4494 C   0  0  0  0  0  0  0  0  0  0  0  0
  1  4  1  0
  1 20  1  0
  2 16  2  0
  2 19  1  0
  3  7  1  0
  3 21  1  0
  4 13  1  0
  5 10  1  0
  5 11  2  0
  6  7  1  0
  6 10  1  0
  7 14  1  0
  8 20  1  0
  8 22  1  0
  9 14  1  0
  9 15  1  0
 10 19  2  0
 11 16  1  0
 12 17  2  0
 12 18  1  0
 13 22  1  0
 14 17  1  0
 15 18  2  0
 20 21  1  0
M  END
