
     RDKit          3D

 22 22  0  0  0  0  0  0  0  0999 V2000
   22.6706   10.2589   28.8280 C   0  0  0  0  0  0  0  0  0  0  0  0
   23.2653    7.9694   28.5822 C   0  0  0  0  0  0  0  0  0  0  0  0
   24.2336    7.0103   29.3758 C   0  0  0  0  0  0  0  0  0  0  0  0
   23.1472    9.1512   29.3411 C   0  0  0  0  0  0  0  0  0  0  0  0
   27.8635    3.4060   28.4976 C   0  0  0  0  0  0  0  0  0  0  0  0
   26.8947    4.4900   29.1601 C   0  0  0  0  0  0  0  0  0  0  0  0
   25.0177    4.2160   27.2279 C   0  0  0  0  0  0  0  0  0  0  0  0
   25.3007    3.1980   26.6346 C   0  0  0  0  0  0  0  0  0  0  0  0
   22.3275   10.3328   27.4323 C   0  0  0  0  0  0  0  0  0  0  0  0
   24.5292    3.0879   24.5489 C   0  0  0  0  0  0  0  0  0  0  0  0
   22.1414    9.2008   25.0597 C   0  0  0  0  0  0  0  0  0  0  0  0
   22.4938    6.2036   26.6599 C   0  0  0  0  0  0  0  0  0  0  0  0
   27.6083    5.2864   30.2016 C   0  0  0  0  0  0  0  0  0  0  0  0
   22.5836    6.6466   26.7009 C   0  0  0  0  0  0  0  0  0  0  0  0
   22.3878    9.0945   26.5338 C   0  0  0  0  0  0  0  0  0  0  0  0
   22.0115   11.5652   27.1569 O   0  0  0  0  0  0  0  0  0  0  0  0
   25.9945    5.0744   28.0051 C   0  0  0  0  0  0  0  0  0  0  0  0
   22.8605    5.0039   25.6090 C   0  0  0  0  0  0  0  0  0  0  0  0
   25.1989    2.6614   25.5001 C   0  0  0  0  0  0  0  0  0  0  0  0
   23.5785    4.1829   24.6363 C   0  0  0  0  0  0  0  0  0  0  0  0
   22.7265    7.7201   27.1800 C   0  0  0  0  0  0  0  0  0  0  0  0
   25.7576    7.2711   29.6708 C   0  0  0  0  0  0  0  0  0  0  0  0
  1  4  1  0
  1  9  2  0
  2  3  1  0
  2  4  2  0
  2 21  1  0
  3 22  1  0
  5  6  1  0
  6 13  1  0
  6 17  1  0
  7  8  1  0
  7 17  1  0
  8 19  2  3
  9 15  1  0
  9 16  1  0
 10 19  1  0
 10 20  1  0
 11 15  1  0
 12 14  2  0
 12 18  2  0
 14 21  2  0
 15 21  1  0
 18 20  2  0
M  END
