
     RDKit          3D

 40 41  0  0  0  0  0  0  0  0999 V2000
    0.9694    0.9237    1.9403 C   0  0  0  0  0  0  0  0  0  0  0  0
    1.0207    1.1619    0.4399 C   0  0  0  0  0  0  0  0  0  0  0  0
    2.0208    0.2885   -0.1624 N   0  0  0  0  0  0  0  0  0  0  0  0
    3.4276    0.5194   -0.0457 C   0  0  0  0  0  0  0  0  0  0  0  0
    3.8557    1.5549    0.5328 O   0  0  0  0  0  0  0  0  0  0  0  0
    4.3749   -0.4514   -0.6044 C   0  0  0  0  0  0  0  0  0  0  0  0
    3.9380   -1.4845   -1.1797 O   0  0  0  0  0  0  0  0  0  0  0  0
    5.7860   -0.2080   -0.4954 N   0  0  0  0  0  0  0  0  0  0  0  0
    6.8523   -1.0805   -0.9066 C   0  0  0  0  0  0  0  0  0  0  0  0
    6.5719   -2.3674   -1.3938 C   0  0  0  0  0  0  0  0  0  0  0  0
    7.5976   -3.2275   -1.7824 C   0  0  0  0  0  0  0  0  0  0  0  0
    8.9238   -2.8129   -1.6872 C   0  0  0  0  0  0  0  0  0  0  0  0
    9.2222   -1.5385   -1.2033 C   0  0  0  0  0  0  0  0  0  0  0  0
    8.2034   -0.6504   -0.8045 C   0  0  0  0  0  0  0  0  0  0  0  0
    8.5624    0.7385   -0.2781 C   0  0  0  0  0  0  0  0  0  0  0  0
    8.0626    0.9040    1.1467 C   0  0  0  0  0  0  0  0  0  0  0  0
   10.0645    0.9950   -0.2630 C   0  0  0  0  0  0  0  0  0  0  0  0
    7.9305    1.8091   -1.1509 C   0  0  0  0  0  0  0  0  0  0  0  0
   -0.3325    0.9133   -0.1557 C   0  0  0  0  0  0  0  0  0  0  0  0
   -0.5032   -0.0092   -1.0009 O   0  0  0  0  0  0  0  0  0  0  0  0
   -1.4334    1.7353    0.2435 N   0  0  0  0  0  0  0  0  0  0  0  0
   -2.7860    1.5571   -0.2759 C   0  0  0  0  0  0  0  0  0  0  0  0
   -3.6655    2.7300    0.1335 C   0  0  0  0  0  0  0  0  0  0  0  0
   -3.2803    3.9626   -0.6109 C   0  0  0  0  0  0  0  0  0  0  0  0
   -3.6530    4.1229   -1.8027 O   0  0  0  0  0  0  0  0  0  0  0  0
   -2.4963    4.9280    0.0053 O   0  0  0  0  0  0  0  0  0  0  0  0
   -3.3778    0.2719    0.2198 C   0  0  0  0  0  0  0  0  0  0  0  0
   -3.3767    0.0071    1.4129 O   0  0  0  0  0  0  0  0  0  0  0  0
   -3.9210   -0.7061   -0.7807 C   0  0  0  0  0  0  0  0  0  0  0  0
   -4.7578   -1.6820   -0.1651 O   0  0  0  0  0  0  0  0  0  0  0  0
   -6.0604   -1.4546    0.3078 C   0  0  0  0  0  0  0  0  0  0  0  0
   -6.7734   -0.2558    0.0716 C   0  0  0  0  0  0  0  0  0  0  0  0
   -6.2351    0.7534   -0.6580 F   0  0  0  0  0  0  0  0  0  0  0  0
   -8.0707   -0.1024    0.5743 C   0  0  0  0  0  0  0  0  0  0  0  0
   -8.7573    1.0446    0.3519 F   0  0  0  0  0  0  0  0  0  0  0  0
   -8.6697   -1.1313    1.3027 C   0  0  0  0  0  0  0  0  0  0  0  0
   -7.9762   -2.3198    1.5348 C   0  0  0  0  0  0  0  0  0  0  0  0
   -8.5658   -3.3153    2.2414 F   0  0  0  0  0  0  0  0  0  0  0  0
   -6.6791   -2.4815    1.0391 C   0  0  0  0  0  0  0  0  0  0  0  0
   -6.0132   -3.6423    1.2664 F   0  0  0  0  0  0  0  0  0  0  0  0
  1  2  1  0
  2  3  1  0
  3  4  1  0
  4  5  2  0
  4  6  1  0
  6  7  2  0
  6  8  1  0
  8  9  1  0
  9 10  2  0
 10 11  1  0
 11 12  2  0
 12 13  1  0
 13 14  2  0
 14 15  1  0
 15 16  1  0
 15 17  1  0
 15 18  1  0
  2 19  1  0
 19 20  2  0
 19 21  1  0
 21 22  1  0
 22 23  1  0
 23 24  1  0
 24 25  2  0
 24 26  1  0
 22 27  1  0
 27 28  2  0
 27 29  1  0
 29 30  1  0
 30 31  1  0
 31 32  2  0
 32 33  1  0
 32 34  1  0
 34 35  1  0
 34 36  2  0
 36 37  1  0
 37 38  1  0
 37 39  2  0
 39 40  1  0
 14  9  1  0
 39 31  1  0
M  END
