
     RDKit          3D

 25 26  0  0  0  0  0  0  0  0999 V2000
   -5.1604    1.4538    2.1747 O   0  0  0  0  0  0  0  0  0  0  0  0
   -4.9536    0.2515    2.1529 C   0  0  0  0  0  0  0  0  0  0  0  0
   -4.8545   -0.4738    0.8497 C   0  0  0  0  0  0  0  0  0  0  0  0
   -4.7660   -1.9753    1.0901 C   0  0  0  0  0  0  0  0  0  0  0  0
   -4.9727   -2.7266   -0.1802 C   0  0  0  0  0  0  0  0  0  0  0  0
   -6.1363   -3.0313   -0.5496 O   0  0  0  0  0  0  0  0  0  0  0  0
   -3.8839   -3.0608   -0.9743 O   0  0  0  0  0  0  0  0  0  0  0  0
   -3.7140    0.0070    0.0695 N   0  0  0  0  0  0  0  0  0  0  0  0
   -2.3424   -0.0960    0.4776 C   0  0  0  0  0  0  0  0  0  0  0  0
   -2.0492   -0.6211    1.5867 O   0  0  0  0  0  0  0  0  0  0  0  0
   -1.2746    0.4104   -0.4009 C   0  0  0  0  0  0  0  0  0  0  0  0
   -1.5821    0.9927   -1.6352 C   0  0  0  0  0  0  0  0  0  0  0  0
   -0.5908    1.4569   -2.4410 N   0  0  0  0  0  0  0  0  0  0  0  0
    0.7178    1.3733   -2.0820 C   0  0  0  0  0  0  0  0  0  0  0  0
    1.0849    0.7992   -0.8562 C   0  0  0  0  0  0  0  0  0  0  0  0
    2.5086    0.7033   -0.4561 C   0  0  0  0  0  0  0  0  0  0  0  0
    2.8683    0.1269    0.7728 C   0  0  0  0  0  0  0  0  0  0  0  0
    4.2107    0.0364    1.1502 C   0  0  0  0  0  0  0  0  0  0  0  0
    5.2176    0.5210    0.3050 C   0  0  0  0  0  0  0  0  0  0  0  0
    6.6329    0.4282    0.6977 C   0  0  0  0  0  0  0  0  0  0  0  0
    6.9573   -0.0887    1.7999 O   0  0  0  0  0  0  0  0  0  0  0  0
    7.6270    0.9110   -0.1457 O   0  0  0  0  0  0  0  0  0  0  0  0
    4.8647    1.0968   -0.9216 C   0  0  0  0  0  0  0  0  0  0  0  0
    3.5222    1.1872   -1.2989 C   0  0  0  0  0  0  0  0  0  0  0  0
    0.0684    0.3180   -0.0193 C   0  0  0  0  0  0  0  0  0  0  0  0
  1  2  2  0
  2  3  1  0
  3  4  1  0
  4  5  1  0
  5  6  2  0
  5  7  1  0
  3  8  1  0
  8  9  1  0
  9 10  2  0
  9 11  1  0
 11 12  2  0
 12 13  1  0
 13 14  2  0
 14 15  1  0
 15 16  1  0
 16 17  2  0
 17 18  1  0
 18 19  2  0
 19 20  1  0
 20 21  2  0
 20 22  1  0
 19 23  1  0
 23 24  2  0
 15 25  2  0
 25 11  1  0
 24 16  1  0
M  END
